<routes>
        <vType accel="1.0" decel="4.5" id="standard_car" length="5.0" minGap="2.5" maxSpeed="25" sigma="0.5" />

        <route id="W_N" edges="W2TL TL2N"/>
        <route id="W_E" edges="W2TL TL2E"/>
        <route id="W_S" edges="W2TL TL2S"/>
        <route id="N_W" edges="N2TL TL2W"/>
        <route id="N_E" edges="N2TL TL2E"/>
        <route id="N_S" edges="N2TL TL2S"/>
        <route id="E_W" edges="E2TL TL2W"/>
        <route id="E_N" edges="E2TL TL2N"/>
        <route id="E_S" edges="E2TL TL2S"/>
        <route id="S_W" edges="S2TL TL2W"/>
        <route id="S_N" edges="S2TL TL2N"/>
        <route id="S_E" edges="S2TL TL2E"/>
    <vehicle id="N_W_0" type="standard_car" route="N_W" depart="0.0" />
    <vehicle id="E_W_1" type="standard_car" route="E_W" depart="0.0" />
    <vehicle id="S_N_2" type="standard_car" route="S_N" depart="0.0" />
    <vehicle id="E_W_3" type="standard_car" route="E_W" depart="0.0" />
    <vehicle id="E_W_4" type="standard_car" route="E_W" depart="1.0" />
    <vehicle id="W_E_5" type="standard_car" route="W_E" depart="1.0" />
    <vehicle id="N_S_6" type="standard_car" route="N_S" depart="2.0" />
    <vehicle id="S_N_7" type="standard_car" route="S_N" depart="2.0" />
    <vehicle id="N_W_8" type="standard_car" route="N_W" depart="2.0" />
    <vehicle id="W_E_9" type="standard_car" route="W_E" depart="3.0" />
    <vehicle id="W_E_10" type="standard_car" route="W_E" depart="4.0" />
    <vehicle id="W_E_11" type="standard_car" route="W_E" depart="5.0" />
    <vehicle id="W_E_12" type="standard_car" route="W_E" depart="5.0" />
    <vehicle id="S_N_13" type="standard_car" route="S_N" depart="9.0" />
    <vehicle id="N_S_14" type="standard_car" route="N_S" depart="11.0" />
    <vehicle id="E_S_15" type="standard_car" route="E_S" depart="11.0" />
    <vehicle id="W_S_16" type="standard_car" route="W_S" depart="12.0" />
    <vehicle id="W_E_17" type="standard_car" route="W_E" depart="15.0" />
    <vehicle id="E_N_18" type="standard_car" route="E_N" depart="17.0" />
    <vehicle id="S_N_19" type="standard_car" route="S_N" depart="17.0" />
    <vehicle id="W_E_20" type="standard_car" route="W_E" depart="18.0" />
    <vehicle id="E_W_21" type="standard_car" route="E_W" depart="19.0" />
    <vehicle id="W_E_22" type="standard_car" route="W_E" depart="20.0" />
    <vehicle id="W_E_23" type="standard_car" route="W_E" depart="21.0" />
    <vehicle id="S_N_24" type="standard_car" route="S_N" depart="23.0" />
    <vehicle id="E_W_25" type="standard_car" route="E_W" depart="24.0" />
    <vehicle id="S_N_26" type="standard_car" route="S_N" depart="25.0" />
    <vehicle id="N_W_27" type="standard_car" route="N_W" depart="27.0" />
    <vehicle id="W_E_28" type="standard_car" route="W_E" depart="28.0" />
    <vehicle id="E_W_29" type="standard_car" route="E_W" depart="28.0" />
    <vehicle id="N_S_30" type="standard_car" route="N_S" depart="31.0" />
    <vehicle id="S_E_31" type="standard_car" route="N_E" depart="39.0" />
    <vehicle id="W_E_32" type="standard_car" route="W_E" depart="41.0" />
    <vehicle id="N_S_33" type="standard_car" route="N_S" depart="42.0" />
    <vehicle id="E_W_34" type="standard_car" route="E_W" depart="42.0" />
    <vehicle id="E_S_35" type="standard_car" route="E_S" depart="44.0" />
    <vehicle id="N_S_36" type="standard_car" route="N_S" depart="47.0" />
    <vehicle id="E_S_37" type="standard_car" route="E_S" depart="49.0" />
    <vehicle id="E_W_38" type="standard_car" route="E_W" depart="50.0" />
    <vehicle id="N_S_39" type="standard_car" route="N_S" depart="51.0" />
    <vehicle id="S_W_40" type="standard_car" route="S_W" depart="52.0" />
    <vehicle id="N_E_41" type="standard_car" route="N_E" depart="53.0" />
    <vehicle id="N_S_42" type="standard_car" route="N_S" depart="55.0" />
    <vehicle id="E_W_43" type="standard_car" route="E_W" depart="59.0" />
    <vehicle id="E_W_44" type="standard_car" route="E_W" depart="64.0" />
    <vehicle id="S_W_45" type="standard_car" route="S_W" depart="72.0" />
    <vehicle id="E_W_46" type="standard_car" route="E_W" depart="79.0" />
    <vehicle id="W_N_47" type="standard_car" route="W_N" depart="80.0" />
    <vehicle id="W_N_48" type="standard_car" route="W_N" depart="81.0" />
    <vehicle id="E_S_49" type="standard_car" route="E_S" depart="82.0" />
    <vehicle id="E_W_50" type="standard_car" route="E_W" depart="84.0" />
    <vehicle id="W_N_51" type="standard_car" route="W_N" depart="85.0" />
    <vehicle id="N_E_52" type="standard_car" route="N_E" depart="89.0" />
    <vehicle id="N_E_53" type="standard_car" route="N_E" depart="90.0" />
    <vehicle id="S_N_54" type="standard_car" route="S_N" depart="91.0" />
    <vehicle id="S_N_55" type="standard_car" route="S_N" depart="96.0" />
    <vehicle id="W_S_56" type="standard_car" route="W_S" depart="97.0" />
    <vehicle id="S_N_57" type="standard_car" route="S_N" depart="105.0" />
    <vehicle id="N_S_58" type="standard_car" route="N_S" depart="106.0" />
    <vehicle id="E_S_59" type="standard_car" route="E_S" depart="113.0" />
    <vehicle id="S_N_60" type="standard_car" route="S_N" depart="116.0" />
    <vehicle id="S_N_61" type="standard_car" route="S_N" depart="118.0" />
    <vehicle id="S_N_62" type="standard_car" route="S_N" depart="119.0" />
    <vehicle id="N_S_63" type="standard_car" route="N_S" depart="123.0" />
    <vehicle id="E_W_64" type="standard_car" route="E_W" depart="125.0" />
    <vehicle id="S_N_65" type="standard_car" route="S_N" depart="136.0" />
    <vehicle id="W_N_66" type="standard_car" route="W_N" depart="144.0" />
    <vehicle id="S_N_67" type="standard_car" route="S_N" depart="155.0" />
    <vehicle id="W_E_68" type="standard_car" route="W_E" depart="164.0" />
    <vehicle id="S_W_69" type="standard_car" route="S_W" depart="173.0" />
    <vehicle id="E_N_70" type="standard_car" route="E_N" depart="173.0" />
    <vehicle id="N_S_71" type="standard_car" route="N_S" depart="178.0" />
    <vehicle id="N_S_72" type="standard_car" route="N_S" depart="178.0" />
    <vehicle id="W_E_73" type="standard_car" route="W_E" depart="179.0" />
    <vehicle id="W_E_74" type="standard_car" route="W_E" depart="199.0" />
    <vehicle id="N_S_75" type="standard_car" route="N_S" depart="200.0" />
    <vehicle id="W_E_76" type="standard_car" route="W_E" depart="201.0" />
    <vehicle id="N_S_77" type="standard_car" route="N_S" depart="207.0" />
    <vehicle id="E_W_78" type="standard_car" route="E_W" depart="210.0" />
    <vehicle id="S_N_79" type="standard_car" route="S_N" depart="214.0" />
    <vehicle id="E_W_80" type="standard_car" route="E_W" depart="214.0" />
    <vehicle id="N_W_81" type="standard_car" route="N_W" depart="217.0" />
    <vehicle id="W_N_82" type="standard_car" route="W_N" depart="223.0" />
    <vehicle id="N_S_83" type="standard_car" route="N_S" depart="224.0" />
    <vehicle id="E_W_84" type="standard_car" route="E_W" depart="224.0" />
    <vehicle id="S_N_85" type="standard_car" route="S_N" depart="235.0" />
    <vehicle id="W_S_86" type="standard_car" route="W_S" depart="239.0" />
    <vehicle id="S_N_87" type="standard_car" route="S_N" depart="239.0" />
    <vehicle id="E_N_88" type="standard_car" route="E_N" depart="244.0" />
    <vehicle id="E_W_89" type="standard_car" route="E_W" depart="248.0" />
    <vehicle id="W_E_90" type="standard_car" route="W_E" depart="253.0" />
    <vehicle id="W_E_91" type="standard_car" route="W_E" depart="255.0" />
    <vehicle id="E_W_92" type="standard_car" route="E_W" depart="258.0" />
    <vehicle id="E_W_93" type="standard_car" route="E_W" depart="268.0" />
    <vehicle id="E_W_94" type="standard_car" route="E_W" depart="270.0" />
    <vehicle id="N_E_95" type="standard_car" route="N_E" depart="282.0" />
    <vehicle id="S_N_96" type="standard_car" route="S_N" depart="291.0" />
    <vehicle id="W_E_97" type="standard_car" route="W_E" depart="299.0" />
    <vehicle id="E_W_98" type="standard_car" route="E_W" depart="299.0" />
    <vehicle id="S_N_99" type="standard_car" route="S_N" depart="301.0" />
    <vehicle id="S_N_100" type="standard_car" route="S_N" depart="304.0" />
    <vehicle id="N_S_101" type="standard_car" route="N_S" depart="305.0" />
    <vehicle id="W_E_102" type="standard_car" route="W_E" depart="305.0" />
    <vehicle id="E_S_103" type="standard_car" route="E_S" depart="307.0" />
    <vehicle id="W_E_104" type="standard_car" route="W_E" depart="314.0" />
    <vehicle id="W_E_105" type="standard_car" route="W_E" depart="320.0" />
    <vehicle id="N_S_106" type="standard_car" route="N_S" depart="321.0" />
    <vehicle id="N_S_107" type="standard_car" route="N_S" depart="324.0" />
    <vehicle id="E_W_108" type="standard_car" route="E_W" depart="330.0" />
    <vehicle id="S_E_109" type="standard_car" route="N_E" depart="340.0" />
    <vehicle id="W_S_110" type="standard_car" route="W_S" depart="341.0" />
    <vehicle id="S_N_111" type="standard_car" route="S_N" depart="343.0" />
    <vehicle id="N_S_112" type="standard_car" route="N_S" depart="346.0" />
    <vehicle id="S_N_113" type="standard_car" route="S_N" depart="348.0" />
    <vehicle id="W_S_114" type="standard_car" route="W_S" depart="361.0" />
    <vehicle id="W_E_115" type="standard_car" route="W_E" depart="378.0" />
    <vehicle id="W_E_116" type="standard_car" route="W_E" depart="399.0" />
    <vehicle id="W_E_117" type="standard_car" route="W_E" depart="410.0" />
    <vehicle id="N_W_118" type="standard_car" route="N_W" depart="412.0" />
    <vehicle id="N_S_119" type="standard_car" route="N_S" depart="426.0" />
    <vehicle id="E_W_120" type="standard_car" route="E_W" depart="429.0" />
    <vehicle id="S_W_121" type="standard_car" route="S_W" depart="435.0" />
    <vehicle id="N_S_122" type="standard_car" route="N_S" depart="453.0" />
    <vehicle id="S_N_123" type="standard_car" route="S_N" depart="459.0" />
    <vehicle id="N_W_124" type="standard_car" route="N_W" depart="461.0" />
    <vehicle id="W_E_125" type="standard_car" route="W_E" depart="481.0" />
    <vehicle id="S_E_126" type="standard_car" route="N_E" depart="485.0" />
    <vehicle id="E_S_127" type="standard_car" route="E_S" depart="489.0" />
    <vehicle id="S_N_128" type="standard_car" route="S_N" depart="491.0" />
    <vehicle id="N_S_129" type="standard_car" route="N_S" depart="492.0" />
    <vehicle id="S_N_130" type="standard_car" route="S_N" depart="495.0" />
    <vehicle id="N_S_131" type="standard_car" route="N_S" depart="496.0" />
    <vehicle id="W_E_132" type="standard_car" route="W_E" depart="504.0" />
    <vehicle id="E_W_133" type="standard_car" route="E_W" depart="507.0" />
    <vehicle id="N_S_134" type="standard_car" route="N_S" depart="514.0" />
    <vehicle id="N_W_135" type="standard_car" route="N_W" depart="517.0" />
    <vehicle id="W_E_136" type="standard_car" route="W_E" depart="517.0" />
    <vehicle id="N_S_137" type="standard_car" route="N_S" depart="524.0" />
    <vehicle id="S_N_138" type="standard_car" route="S_N" depart="528.0" />
    <vehicle id="S_E_139" type="standard_car" route="N_E" depart="533.0" />
    <vehicle id="E_W_140" type="standard_car" route="E_W" depart="543.0" />
    <vehicle id="W_E_141" type="standard_car" route="W_E" depart="561.0" />
    <vehicle id="S_N_142" type="standard_car" route="S_N" depart="575.0" />
    <vehicle id="E_W_143" type="standard_car" route="E_W" depart="586.0" />
    <vehicle id="S_N_144" type="standard_car" route="S_N" depart="592.0" />
    <vehicle id="E_W_145" type="standard_car" route="E_W" depart="595.0" />
    <vehicle id="W_E_146" type="standard_car" route="W_E" depart="602.0" />
    <vehicle id="E_W_147" type="standard_car" route="E_W" depart="634.0" />
    <vehicle id="W_E_148" type="standard_car" route="W_E" depart="657.0" />
    <vehicle id="W_E_149" type="standard_car" route="W_E" depart="672.0" />
    <vehicle id="E_W_150" type="standard_car" route="E_W" depart="691.0" />
    <vehicle id="E_W_151" type="standard_car" route="E_W" depart="692.0" />
    <vehicle id="E_W_152" type="standard_car" route="E_W" depart="693.0" />
    <vehicle id="W_E_153" type="standard_car" route="W_E" depart="696.0" />
    <vehicle id="W_E_154" type="standard_car" route="W_E" depart="707.0" />
    <vehicle id="S_E_155" type="standard_car" route="N_E" depart="715.0" />
    <vehicle id="E_N_156" type="standard_car" route="E_N" depart="731.0" />
    <vehicle id="N_S_157" type="standard_car" route="N_S" depart="739.0" />
    <vehicle id="N_S_158" type="standard_car" route="N_S" depart="744.0" />
    <vehicle id="W_E_159" type="standard_car" route="W_E" depart="751.0" />
    <vehicle id="N_S_160" type="standard_car" route="N_S" depart="789.0" />
    <vehicle id="W_E_161" type="standard_car" route="W_E" depart="791.0" />
    <vehicle id="E_W_162" type="standard_car" route="E_W" depart="796.0" />
    <vehicle id="N_S_163" type="standard_car" route="N_S" depart="799.0" />
    <vehicle id="W_N_164" type="standard_car" route="W_N" depart="817.0" />
    <vehicle id="E_W_165" type="standard_car" route="E_W" depart="836.0" />
    <vehicle id="N_S_166" type="standard_car" route="N_S" depart="836.0" />
    <vehicle id="N_S_167" type="standard_car" route="N_S" depart="846.0" />
    <vehicle id="E_W_168" type="standard_car" route="E_W" depart="861.0" />
    <vehicle id="W_E_169" type="standard_car" route="W_E" depart="874.0" />
    <vehicle id="E_W_170" type="standard_car" route="E_W" depart="890.0" />
    <vehicle id="E_W_171" type="standard_car" route="E_W" depart="897.0" />
    <vehicle id="N_S_172" type="standard_car" route="N_S" depart="904.0" />
    <vehicle id="E_W_173" type="standard_car" route="E_W" depart="905.0" />
    <vehicle id="W_E_174" type="standard_car" route="W_E" depart="911.0" />
    <vehicle id="W_E_175" type="standard_car" route="W_E" depart="914.0" />
    <vehicle id="N_W_176" type="standard_car" route="N_W" depart="926.0" />
    <vehicle id="W_E_177" type="standard_car" route="W_E" depart="929.0" />
    <vehicle id="N_S_178" type="standard_car" route="N_S" depart="948.0" />
    <vehicle id="N_S_179" type="standard_car" route="N_S" depart="965.0" />
    <vehicle id="N_E_180" type="standard_car" route="N_E" depart="979.0" />
    <vehicle id="S_N_181" type="standard_car" route="S_N" depart="980.0" />
    <vehicle id="N_W_182" type="standard_car" route="N_W" depart="982.0" />
    <vehicle id="W_E_183" type="standard_car" route="W_E" depart="991.0" />
    <vehicle id="W_E_184" type="standard_car" route="W_E" depart="993.0" />
    <vehicle id="E_N_185" type="standard_car" route="E_N" depart="1017.0" />
    <vehicle id="W_E_186" type="standard_car" route="W_E" depart="1025.0" />
    <vehicle id="W_E_187" type="standard_car" route="W_E" depart="1025.0" />
    <vehicle id="N_S_188" type="standard_car" route="N_S" depart="1026.0" />
    <vehicle id="S_W_189" type="standard_car" route="S_W" depart="1028.0" />
    <vehicle id="W_E_190" type="standard_car" route="W_E" depart="1033.0" />
    <vehicle id="W_E_191" type="standard_car" route="W_E" depart="1038.0" />
    <vehicle id="E_W_192" type="standard_car" route="E_W" depart="1050.0" />
    <vehicle id="W_E_193" type="standard_car" route="W_E" depart="1073.0" />
    <vehicle id="E_N_194" type="standard_car" route="E_N" depart="1085.0" />
    <vehicle id="N_E_195" type="standard_car" route="N_E" depart="1086.0" />
    <vehicle id="S_N_196" type="standard_car" route="S_N" depart="1091.0" />
    <vehicle id="W_E_197" type="standard_car" route="W_E" depart="1106.0" />
    <vehicle id="E_N_198" type="standard_car" route="E_N" depart="1123.0" />
    <vehicle id="N_S_199" type="standard_car" route="N_S" depart="1147.0" />
    <vehicle id="W_E_200" type="standard_car" route="W_E" depart="1162.0" />
    <vehicle id="N_S_201" type="standard_car" route="N_S" depart="1177.0" />
    <vehicle id="N_S_202" type="standard_car" route="N_S" depart="1180.0" />
    <vehicle id="E_W_203" type="standard_car" route="E_W" depart="1185.0" />
    <vehicle id="S_N_204" type="standard_car" route="S_N" depart="1193.0" />
    <vehicle id="N_S_205" type="standard_car" route="N_S" depart="1210.0" />
    <vehicle id="N_W_206" type="standard_car" route="N_W" depart="1212.0" />
    <vehicle id="N_E_207" type="standard_car" route="N_E" depart="1240.0" />
    <vehicle id="S_N_208" type="standard_car" route="S_N" depart="1274.0" />
    <vehicle id="W_E_209" type="standard_car" route="W_E" depart="1279.0" />
    <vehicle id="W_E_210" type="standard_car" route="W_E" depart="1289.0" />
    <vehicle id="S_N_211" type="standard_car" route="S_N" depart="1294.0" />
    <vehicle id="W_E_212" type="standard_car" route="W_E" depart="1299.0" />
    <vehicle id="N_S_213" type="standard_car" route="N_S" depart="1308.0" />
    <vehicle id="W_E_214" type="standard_car" route="W_E" depart="1323.0" />
    <vehicle id="E_W_215" type="standard_car" route="E_W" depart="1330.0" />
    <vehicle id="S_N_216" type="standard_car" route="S_N" depart="1330.0" />
    <vehicle id="S_N_217" type="standard_car" route="S_N" depart="1330.0" />
    <vehicle id="S_N_218" type="standard_car" route="S_N" depart="1331.0" />
    <vehicle id="S_N_219" type="standard_car" route="S_N" depart="1336.0" />
    <vehicle id="N_S_220" type="standard_car" route="N_S" depart="1339.0" />
    <vehicle id="W_S_221" type="standard_car" route="W_S" depart="1350.0" />
    <vehicle id="N_S_222" type="standard_car" route="N_S" depart="1350.0" />
    <vehicle id="S_N_223" type="standard_car" route="S_N" depart="1351.0" />
    <vehicle id="E_W_224" type="standard_car" route="E_W" depart="1354.0" />
    <vehicle id="E_S_225" type="standard_car" route="E_S" depart="1377.0" />
    <vehicle id="W_E_226" type="standard_car" route="W_E" depart="1417.0" />
    <vehicle id="S_N_227" type="standard_car" route="S_N" depart="1425.0" />
    <vehicle id="N_W_228" type="standard_car" route="N_W" depart="1431.0" />
    <vehicle id="S_N_229" type="standard_car" route="S_N" depart="1442.0" />
    <vehicle id="W_E_230" type="standard_car" route="W_E" depart="1459.0" />
    <vehicle id="N_W_231" type="standard_car" route="N_W" depart="1481.0" />
    <vehicle id="W_E_232" type="standard_car" route="W_E" depart="1488.0" />
    <vehicle id="S_N_233" type="standard_car" route="S_N" depart="1509.0" />
    <vehicle id="W_E_234" type="standard_car" route="W_E" depart="1512.0" />
    <vehicle id="S_N_235" type="standard_car" route="S_N" depart="1529.0" />
    <vehicle id="S_N_236" type="standard_car" route="S_N" depart="1560.0" />
    <vehicle id="S_N_237" type="standard_car" route="S_N" depart="1562.0" />
    <vehicle id="E_W_238" type="standard_car" route="E_W" depart="1569.0" />
    <vehicle id="W_E_239" type="standard_car" route="W_E" depart="1580.0" />
    <vehicle id="W_S_240" type="standard_car" route="W_S" depart="1596.0" />
    <vehicle id="E_S_241" type="standard_car" route="E_S" depart="1627.0" />
    <vehicle id="E_W_242" type="standard_car" route="E_W" depart="1671.0" />
    <vehicle id="W_E_243" type="standard_car" route="W_E" depart="1683.0" />
    <vehicle id="E_W_244" type="standard_car" route="E_W" depart="1719.0" />
    <vehicle id="N_W_245" type="standard_car" route="N_W" depart="1733.0" />
    <vehicle id="E_S_246" type="standard_car" route="E_S" depart="1734.0" />
    <vehicle id="N_S_247" type="standard_car" route="N_S" depart="1745.0" />
    <vehicle id="N_S_248" type="standard_car" route="N_S" depart="1766.0" />
    <vehicle id="S_N_249" type="standard_car" route="S_N" depart="1793.0" />
    <vehicle id="E_W_250" type="standard_car" route="E_W" depart="1824.0" />
    <vehicle id="E_W_251" type="standard_car" route="E_W" depart="1826.0" />
    <vehicle id="W_E_252" type="standard_car" route="W_E" depart="1862.0" />
    <vehicle id="W_S_253" type="standard_car" route="W_S" depart="1874.0" />
    <vehicle id="S_N_254" type="standard_car" route="S_N" depart="1896.0" />
    <vehicle id="S_W_255" type="standard_car" route="S_W" depart="1923.0" />
    <vehicle id="S_N_256" type="standard_car" route="S_N" depart="2020.0" />
    <vehicle id="W_E_257" type="standard_car" route="W_E" depart="2041.0" />
    <vehicle id="S_N_258" type="standard_car" route="S_N" depart="2052.0" />
    <vehicle id="E_W_259" type="standard_car" route="E_W" depart="2055.0" />
    <vehicle id="W_N_260" type="standard_car" route="W_N" depart="2062.0" />
    <vehicle id="E_W_261" type="standard_car" route="E_W" depart="2074.0" />
    <vehicle id="W_E_262" type="standard_car" route="W_E" depart="2077.0" />
    <vehicle id="S_N_263" type="standard_car" route="S_N" depart="2110.0" />
    <vehicle id="E_S_264" type="standard_car" route="E_S" depart="2115.0" />
    <vehicle id="N_S_265" type="standard_car" route="N_S" depart="2117.0" />
    <vehicle id="W_E_266" type="standard_car" route="W_E" depart="2127.0" />
    <vehicle id="W_N_267" type="standard_car" route="W_N" depart="2140.0" />
    <vehicle id="W_E_268" type="standard_car" route="W_E" depart="2149.0" />
    <vehicle id="E_W_269" type="standard_car" route="E_W" depart="2151.0" />
    <vehicle id="N_S_270" type="standard_car" route="N_S" depart="2169.0" />
    <vehicle id="S_E_271" type="standard_car" route="N_E" depart="2178.0" />
    <vehicle id="W_E_272" type="standard_car" route="W_E" depart="2193.0" />
    <vehicle id="S_N_273" type="standard_car" route="S_N" depart="2207.0" />
    <vehicle id="N_S_274" type="standard_car" route="N_S" depart="2259.0" />
    <vehicle id="W_E_275" type="standard_car" route="W_E" depart="2260.0" />
    <vehicle id="W_E_276" type="standard_car" route="W_E" depart="2269.0" />
    <vehicle id="N_S_277" type="standard_car" route="N_S" depart="2274.0" />
    <vehicle id="S_N_278" type="standard_car" route="S_N" depart="2280.0" />
    <vehicle id="W_N_279" type="standard_car" route="W_N" depart="2292.0" />
    <vehicle id="E_N_280" type="standard_car" route="E_N" depart="2326.0" />
    <vehicle id="E_W_281" type="standard_car" route="E_W" depart="2332.0" />
    <vehicle id="W_E_282" type="standard_car" route="W_E" depart="2362.0" />
    <vehicle id="S_N_283" type="standard_car" route="S_N" depart="2365.0" />
    <vehicle id="N_S_284" type="standard_car" route="N_S" depart="2368.0" />
    <vehicle id="S_N_285" type="standard_car" route="S_N" depart="2376.0" />
    <vehicle id="N_S_286" type="standard_car" route="N_S" depart="2378.0" />
    <vehicle id="N_W_287" type="standard_car" route="N_W" depart="2405.0" />
    <vehicle id="S_N_288" type="standard_car" route="S_N" depart="2410.0" />
    <vehicle id="N_W_289" type="standard_car" route="N_W" depart="2412.0" />
    <vehicle id="W_S_290" type="standard_car" route="W_S" depart="2417.0" />
    <vehicle id="E_W_291" type="standard_car" route="E_W" depart="2423.0" />
    <vehicle id="S_E_292" type="standard_car" route="N_E" depart="2430.0" />
    <vehicle id="S_N_293" type="standard_car" route="S_N" depart="2444.0" />
    <vehicle id="E_W_294" type="standard_car" route="E_W" depart="2444.0" />
    <vehicle id="S_N_295" type="standard_car" route="S_N" depart="2455.0" />
    <vehicle id="E_W_296" type="standard_car" route="E_W" depart="2492.0" />
    <vehicle id="S_W_297" type="standard_car" route="S_W" depart="2492.0" />
    <vehicle id="S_N_298" type="standard_car" route="S_N" depart="2494.0" />
    <vehicle id="E_W_299" type="standard_car" route="E_W" depart="2527.0" />
    <vehicle id="W_N_300" type="standard_car" route="W_N" depart="2538.0" />
    <vehicle id="N_S_301" type="standard_car" route="N_S" depart="2548.0" />
    <vehicle id="E_W_302" type="standard_car" route="E_W" depart="2579.0" />
    <vehicle id="E_W_303" type="standard_car" route="E_W" depart="2590.0" />
    <vehicle id="S_N_304" type="standard_car" route="S_N" depart="2605.0" />
    <vehicle id="N_S_305" type="standard_car" route="N_S" depart="2611.0" />
    <vehicle id="S_N_306" type="standard_car" route="S_N" depart="2617.0" />
    <vehicle id="S_N_307" type="standard_car" route="S_N" depart="2642.0" />
    <vehicle id="W_E_308" type="standard_car" route="W_E" depart="2698.0" />
    <vehicle id="E_W_309" type="standard_car" route="E_W" depart="2704.0" />
    <vehicle id="W_E_310" type="standard_car" route="W_E" depart="2715.0" />
    <vehicle id="E_S_311" type="standard_car" route="E_S" depart="2723.0" />
    <vehicle id="W_S_312" type="standard_car" route="W_S" depart="2735.0" />
    <vehicle id="W_E_313" type="standard_car" route="W_E" depart="2740.0" />
    <vehicle id="E_S_314" type="standard_car" route="E_S" depart="2751.0" />
    <vehicle id="S_N_315" type="standard_car" route="S_N" depart="2796.0" />
    <vehicle id="W_S_316" type="standard_car" route="W_S" depart="2820.0" />
    <vehicle id="W_E_317" type="standard_car" route="W_E" depart="2840.0" />
    <vehicle id="W_E_318" type="standard_car" route="W_E" depart="2842.0" />
    <vehicle id="E_W_319" type="standard_car" route="E_W" depart="2847.0" />
    <vehicle id="W_E_320" type="standard_car" route="W_E" depart="2865.0" />
    <vehicle id="W_N_321" type="standard_car" route="W_N" depart="2881.0" />
    <vehicle id="N_S_322" type="standard_car" route="N_S" depart="2894.0" />
    <vehicle id="S_E_323" type="standard_car" route="N_E" depart="2897.0" />
    <vehicle id="S_N_324" type="standard_car" route="S_N" depart="2916.0" />
    <vehicle id="S_E_325" type="standard_car" route="N_E" depart="2938.0" />
    <vehicle id="N_S_326" type="standard_car" route="N_S" depart="2940.0" />
    <vehicle id="E_S_327" type="standard_car" route="E_S" depart="2949.0" />
    <vehicle id="E_W_328" type="standard_car" route="E_W" depart="2949.0" />
    <vehicle id="N_S_329" type="standard_car" route="N_S" depart="2956.0" />
    <vehicle id="S_N_330" type="standard_car" route="S_N" depart="2965.0" />
    <vehicle id="S_N_331" type="standard_car" route="S_N" depart="2977.0" />
    <vehicle id="W_E_332" type="standard_car" route="W_E" depart="2993.0" />
    <vehicle id="N_S_333" type="standard_car" route="N_S" depart="3002.0" />
    <vehicle id="N_W_334" type="standard_car" route="N_W" depart="3003.0" />
    <vehicle id="S_N_335" type="standard_car" route="S_N" depart="3004.0" />
    <vehicle id="W_S_336" type="standard_car" route="W_S" depart="3030.0" />
    <vehicle id="N_E_337" type="standard_car" route="N_E" depart="3060.0" />
    <vehicle id="S_W_338" type="standard_car" route="S_W" depart="3076.0" />
    <vehicle id="E_S_339" type="standard_car" route="E_S" depart="3080.0" />
    <vehicle id="E_N_340" type="standard_car" route="E_N" depart="3081.0" />
    <vehicle id="E_W_341" type="standard_car" route="E_W" depart="3102.0" />
    <vehicle id="N_E_342" type="standard_car" route="N_E" depart="3117.0" />
    <vehicle id="S_N_343" type="standard_car" route="S_N" depart="3145.0" />
    <vehicle id="N_S_344" type="standard_car" route="N_S" depart="3155.0" />
    <vehicle id="N_S_345" type="standard_car" route="N_S" depart="3160.0" />
    <vehicle id="S_N_346" type="standard_car" route="S_N" depart="3176.0" />
    <vehicle id="W_N_347" type="standard_car" route="W_N" depart="3180.0" />
    <vehicle id="S_N_348" type="standard_car" route="S_N" depart="3186.0" />
    <vehicle id="E_W_349" type="standard_car" route="E_W" depart="3216.0" />
    <vehicle id="S_N_350" type="standard_car" route="S_N" depart="3224.0" />
    <vehicle id="W_S_351" type="standard_car" route="W_S" depart="3240.0" />
    <vehicle id="N_S_352" type="standard_car" route="N_S" depart="3248.0" />
    <vehicle id="W_E_353" type="standard_car" route="W_E" depart="3265.0" />
    <vehicle id="S_N_354" type="standard_car" route="S_N" depart="3273.0" />
    <vehicle id="S_W_355" type="standard_car" route="S_W" depart="3286.0" />
    <vehicle id="N_W_356" type="standard_car" route="N_W" depart="3303.0" />
    <vehicle id="W_N_357" type="standard_car" route="W_N" depart="3321.0" />
    <vehicle id="W_N_358" type="standard_car" route="W_N" depart="3323.0" />
    <vehicle id="S_W_359" type="standard_car" route="S_W" depart="3324.0" />
    <vehicle id="N_S_360" type="standard_car" route="N_S" depart="3331.0" />
    <vehicle id="N_E_361" type="standard_car" route="N_E" depart="3333.0" />
    <vehicle id="W_E_362" type="standard_car" route="W_E" depart="3356.0" />
    <vehicle id="S_N_363" type="standard_car" route="S_N" depart="3359.0" />
    <vehicle id="S_N_364" type="standard_car" route="S_N" depart="3369.0" />
    <vehicle id="S_W_365" type="standard_car" route="S_W" depart="3390.0" />
    <vehicle id="W_S_366" type="standard_car" route="W_S" depart="3391.0" />
    <vehicle id="N_S_367" type="standard_car" route="N_S" depart="3403.0" />
    <vehicle id="S_W_368" type="standard_car" route="S_W" depart="3413.0" />
    <vehicle id="S_E_369" type="standard_car" route="N_E" depart="3414.0" />
    <vehicle id="N_S_370" type="standard_car" route="N_S" depart="3437.0" />
    <vehicle id="W_E_371" type="standard_car" route="W_E" depart="3445.0" />
    <vehicle id="W_E_372" type="standard_car" route="W_E" depart="3464.0" />
    <vehicle id="W_N_373" type="standard_car" route="W_N" depart="3476.0" />
    <vehicle id="N_S_374" type="standard_car" route="N_S" depart="3503.0" />
    <vehicle id="W_N_375" type="standard_car" route="W_N" depart="3509.0" />
    <vehicle id="N_S_376" type="standard_car" route="N_S" depart="3553.0" />
    <vehicle id="N_S_377" type="standard_car" route="N_S" depart="3581.0" />
    <vehicle id="E_W_378" type="standard_car" route="E_W" depart="3589.0" />
    <vehicle id="W_N_379" type="standard_car" route="W_N" depart="3612.0" />
    <vehicle id="S_N_380" type="standard_car" route="S_N" depart="3627.0" />
    <vehicle id="E_N_381" type="standard_car" route="E_N" depart="3665.0" />
    <vehicle id="E_W_382" type="standard_car" route="E_W" depart="3670.0" />
    <vehicle id="W_N_383" type="standard_car" route="W_N" depart="3690.0" />
    <vehicle id="S_E_384" type="standard_car" route="N_E" depart="3697.0" />