<routes>
            <vType accel="1.0" decel="4.5" id="standard_car" length="5.0" minGap="2.5" maxSpeed="25" sigma="0.5" />

            <route id="W_N" edges="W2TL TL2N"/>
            <route id="W_E" edges="W2TL TL2E"/>
            <route id="W_S" edges="W2TL TL2S"/>
            <route id="N_W" edges="N2TL TL2W"/>
            <route id="N_E" edges="N2TL TL2E"/>
            <route id="N_S" edges="N2TL TL2S"/>
            <route id="E_W" edges="E2TL TL2W"/>
            <route id="E_N" edges="E2TL TL2N"/>
            <route id="E_S" edges="E2TL TL2S"/>
            <route id="S_W" edges="S2TL TL2W"/>
            <route id="S_N" edges="S2TL TL2N"/>
            <route id="S_E" edges="S2TL TL2E"/>
    <vehicle id="S_N_0" type="standard_car" route="S_N" depart="66.0" departLane="random" departSpeed="10" />
    <vehicle id="E_W_1" type="standard_car" route="E_W" depart="78.0" departLane="random" departSpeed="10" />
    <vehicle id="W_E_2" type="standard_car" route="W_E" depart="123.0" departLane="random" departSpeed="10" />
    <vehicle id="W_E_3" type="standard_car" route="W_E" depart="124.0" departLane="random" departSpeed="10" />
    <vehicle id="E_W_4" type="standard_car" route="E_W" depart="132.0" departLane="random" departSpeed="10" />
    <vehicle id="E_W_5" type="standard_car" route="E_W" depart="142.0" departLane="random" departSpeed="10" />
    <vehicle id="N_W_6" type="standard_car" route="N_W" depart="145.0" departLane="random" departSpeed="10" />
    <vehicle id="S_N_7" type="standard_car" route="S_N" depart="146.0" departLane="random" departSpeed="10" />
    <vehicle id="N_S_8" type="standard_car" route="N_S" depart="185.0" departLane="random" departSpeed="10" />
    <vehicle id="S_N_9" type="standard_car" route="S_N" depart="186.0" departLane="random" departSpeed="10" />
    <vehicle id="N_S_10" type="standard_car" route="N_S" depart="188.0" departLane="random" departSpeed="10" />
    <vehicle id="N_E_11" type="standard_car" route="N_E" depart="189.0" departLane="random" departSpeed="10" />
    <vehicle id="N_S_12" type="standard_car" route="N_S" depart="189.0" departLane="random" departSpeed="10" />
    <vehicle id="N_S_13" type="standard_car" route="N_S" depart="202.0" departLane="random" departSpeed="10" />
    <vehicle id="N_S_14" type="standard_car" route="N_S" depart="212.0" departLane="random" departSpeed="10" />
    <vehicle id="E_W_15" type="standard_car" route="E_W" depart="212.0" departLane="random" departSpeed="10" />
    <vehicle id="E_W_16" type="standard_car" route="E_W" depart="222.0" departLane="random" departSpeed="10" />
    <vehicle id="E_N_17" type="standard_car" route="E_N" depart="243.0" departLane="random" departSpeed="10" />
    <vehicle id="E_N_18" type="standard_car" route="E_N" depart="243.0" departLane="random" departSpeed="10" />
    <vehicle id="E_W_19" type="standard_car" route="E_W" depart="247.0" departLane="random" departSpeed="10" />
    <vehicle id="N_S_20" type="standard_car" route="N_S" depart="250.0" departLane="random" departSpeed="10" />
    <vehicle id="W_E_21" type="standard_car" route="W_E" depart="267.0" departLane="random" departSpeed="10" />
    <vehicle id="E_W_22" type="standard_car" route="E_W" depart="273.0" departLane="random" departSpeed="10" />
    <vehicle id="N_S_23" type="standard_car" route="N_S" depart="277.0" departLane="random" departSpeed="10" />
    <vehicle id="N_S_24" type="standard_car" route="N_S" depart="289.0" departLane="random" departSpeed="10" />
    <vehicle id="N_S_25" type="standard_car" route="N_S" depart="290.0" departLane="random" departSpeed="10" />
    <vehicle id="N_S_26" type="standard_car" route="N_S" depart="292.0" departLane="random" departSpeed="10" />
    <vehicle id="W_E_27" type="standard_car" route="W_E" depart="294.0" departLane="random" departSpeed="10" />
    <vehicle id="E_W_28" type="standard_car" route="E_W" depart="303.0" departLane="random" departSpeed="10" />
    <vehicle id="E_W_29" type="standard_car" route="E_W" depart="308.0" departLane="random" departSpeed="10" />
    <vehicle id="E_W_30" type="standard_car" route="E_W" depart="313.0" departLane="random" departSpeed="10" />
    <vehicle id="E_W_31" type="standard_car" route="E_W" depart="318.0" departLane="random" departSpeed="10" />
    <vehicle id="W_E_32" type="standard_car" route="W_E" depart="322.0" departLane="random" departSpeed="10" />
    <vehicle id="W_E_33" type="standard_car" route="W_E" depart="322.0" departLane="random" departSpeed="10" />
    <vehicle id="N_S_34" type="standard_car" route="N_S" depart="339.0" departLane="random" departSpeed="10" />
    <vehicle id="N_S_35" type="standard_car" route="N_S" depart="342.0" departLane="random" departSpeed="10" />
    <vehicle id="W_E_36" type="standard_car" route="W_E" depart="344.0" departLane="random" departSpeed="10" />
    <vehicle id="S_N_37" type="standard_car" route="S_N" depart="344.0" departLane="random" departSpeed="10" />
    <vehicle id="S_N_38" type="standard_car" route="S_N" depart="352.0" departLane="random" departSpeed="10" />
    <vehicle id="N_S_39" type="standard_car" route="N_S" depart="353.0" departLane="random" departSpeed="10" />
    <vehicle id="W_E_40" type="standard_car" route="W_E" depart="356.0" departLane="random" departSpeed="10" />
    <vehicle id="E_W_41" type="standard_car" route="E_W" depart="364.0" departLane="random" departSpeed="10" />
    <vehicle id="N_S_42" type="standard_car" route="N_S" depart="364.0" departLane="random" departSpeed="10" />
    <vehicle id="N_S_43" type="standard_car" route="N_S" depart="367.0" departLane="random" departSpeed="10" />
    <vehicle id="S_N_44" type="standard_car" route="S_N" depart="370.0" departLane="random" departSpeed="10" />
    <vehicle id="N_E_45" type="standard_car" route="N_E" depart="373.0" departLane="random" departSpeed="10" />
    <vehicle id="S_N_46" type="standard_car" route="S_N" depart="381.0" departLane="random" departSpeed="10" />
    <vehicle id="W_E_47" type="standard_car" route="W_E" depart="385.0" departLane="random" departSpeed="10" />
    <vehicle id="S_N_48" type="standard_car" route="S_N" depart="387.0" departLane="random" departSpeed="10" />
    <vehicle id="N_E_49" type="standard_car" route="N_E" depart="393.0" departLane="random" departSpeed="10" />
    <vehicle id="E_W_50" type="standard_car" route="E_W" depart="400.0" departLane="random" departSpeed="10" />
    <vehicle id="W_E_51" type="standard_car" route="W_E" depart="402.0" departLane="random" departSpeed="10" />
    <vehicle id="E_W_52" type="standard_car" route="E_W" depart="402.0" departLane="random" departSpeed="10" />
    <vehicle id="E_W_53" type="standard_car" route="E_W" depart="404.0" departLane="random" departSpeed="10" />
    <vehicle id="E_W_54" type="standard_car" route="E_W" depart="406.0" departLane="random" departSpeed="10" />
    <vehicle id="W_S_55" type="standard_car" route="W_S" depart="411.0" departLane="random" departSpeed="10" />
    <vehicle id="W_E_56" type="standard_car" route="W_E" depart="413.0" departLane="random" departSpeed="10" />
    <vehicle id="S_N_57" type="standard_car" route="S_N" depart="417.0" departLane="random" departSpeed="10" />
    <vehicle id="W_E_58" type="standard_car" route="W_E" depart="420.0" departLane="random" departSpeed="10" />
    <vehicle id="E_W_59" type="standard_car" route="E_W" depart="420.0" departLane="random" departSpeed="10" />
    <vehicle id="S_N_60" type="standard_car" route="S_N" depart="420.0" departLane="random" departSpeed="10" />
    <vehicle id="S_N_61" type="standard_car" route="S_N" depart="424.0" departLane="random" departSpeed="10" />
    <vehicle id="E_W_62" type="standard_car" route="E_W" depart="433.0" departLane="random" departSpeed="10" />
    <vehicle id="S_N_63" type="standard_car" route="S_N" depart="433.0" departLane="random" departSpeed="10" />
    <vehicle id="S_N_64" type="standard_car" route="S_N" depart="437.0" departLane="random" departSpeed="10" />
    <vehicle id="W_N_65" type="standard_car" route="W_N" depart="444.0" departLane="random" departSpeed="10" />
    <vehicle id="E_N_66" type="standard_car" route="E_N" depart="444.0" departLane="random" departSpeed="10" />
    <vehicle id="S_E_67" type="standard_car" route="S_E" depart="446.0" departLane="random" departSpeed="10" />
    <vehicle id="W_E_68" type="standard_car" route="W_E" depart="449.0" departLane="random" departSpeed="10" />
    <vehicle id="S_N_69" type="standard_car" route="S_N" depart="456.0" departLane="random" departSpeed="10" />
    <vehicle id="S_W_70" type="standard_car" route="S_W" depart="457.0" departLane="random" departSpeed="10" />
    <vehicle id="W_N_71" type="standard_car" route="W_N" depart="461.0" departLane="random" departSpeed="10" />
    <vehicle id="N_S_72" type="standard_car" route="N_S" depart="461.0" departLane="random" departSpeed="10" />
    <vehicle id="S_W_73" type="standard_car" route="S_W" depart="464.0" departLane="random" departSpeed="10" />
    <vehicle id="N_S_74" type="standard_car" route="N_S" depart="471.0" departLane="random" departSpeed="10" />
    <vehicle id="S_N_75" type="standard_car" route="S_N" depart="471.0" departLane="random" departSpeed="10" />
    <vehicle id="W_E_76" type="standard_car" route="W_E" depart="472.0" departLane="random" departSpeed="10" />
    <vehicle id="E_W_77" type="standard_car" route="E_W" depart="473.0" departLane="random" departSpeed="10" />
    <vehicle id="S_N_78" type="standard_car" route="S_N" depart="483.0" departLane="random" departSpeed="10" />
    <vehicle id="E_W_79" type="standard_car" route="E_W" depart="485.0" departLane="random" departSpeed="10" />
    <vehicle id="W_S_80" type="standard_car" route="W_S" depart="490.0" departLane="random" departSpeed="10" />
    <vehicle id="E_W_81" type="standard_car" route="E_W" depart="496.0" departLane="random" departSpeed="10" />
    <vehicle id="W_N_82" type="standard_car" route="W_N" depart="499.0" departLane="random" departSpeed="10" />
    <vehicle id="W_E_83" type="standard_car" route="W_E" depart="502.0" departLane="random" departSpeed="10" />
    <vehicle id="E_N_84" type="standard_car" route="E_N" depart="504.0" departLane="random" departSpeed="10" />
    <vehicle id="S_N_85" type="standard_car" route="S_N" depart="504.0" departLane="random" departSpeed="10" />
    <vehicle id="E_W_86" type="standard_car" route="E_W" depart="505.0" departLane="random" departSpeed="10" />
    <vehicle id="S_W_87" type="standard_car" route="S_W" depart="506.0" departLane="random" departSpeed="10" />
    <vehicle id="E_W_88" type="standard_car" route="E_W" depart="507.0" departLane="random" departSpeed="10" />
    <vehicle id="W_E_89" type="standard_car" route="W_E" depart="508.0" departLane="random" departSpeed="10" />
    <vehicle id="E_W_90" type="standard_car" route="E_W" depart="509.0" departLane="random" departSpeed="10" />
    <vehicle id="N_E_91" type="standard_car" route="N_E" depart="515.0" departLane="random" departSpeed="10" />
    <vehicle id="W_E_92" type="standard_car" route="W_E" depart="521.0" departLane="random" departSpeed="10" />
    <vehicle id="N_S_93" type="standard_car" route="N_S" depart="523.0" departLane="random" departSpeed="10" />
    <vehicle id="W_N_94" type="standard_car" route="W_N" depart="523.0" departLane="random" departSpeed="10" />
    <vehicle id="N_S_95" type="standard_car" route="N_S" depart="523.0" departLane="random" departSpeed="10" />
    <vehicle id="N_E_96" type="standard_car" route="N_E" depart="527.0" departLane="random" departSpeed="10" />
    <vehicle id="S_N_97" type="standard_car" route="S_N" depart="527.0" departLane="random" departSpeed="10" />
    <vehicle id="W_E_98" type="standard_car" route="W_E" depart="532.0" departLane="random" departSpeed="10" />
    <vehicle id="E_W_99" type="standard_car" route="E_W" depart="536.0" departLane="random" departSpeed="10" />
    <vehicle id="W_E_100" type="standard_car" route="W_E" depart="540.0" departLane="random" departSpeed="10" />
    <vehicle id="W_E_101" type="standard_car" route="W_E" depart="541.0" departLane="random" departSpeed="10" />
    <vehicle id="S_N_102" type="standard_car" route="S_N" depart="544.0" departLane="random" departSpeed="10" />
    <vehicle id="S_E_103" type="standard_car" route="S_E" depart="548.0" departLane="random" departSpeed="10" />
    <vehicle id="W_E_104" type="standard_car" route="W_E" depart="551.0" departLane="random" departSpeed="10" />
    <vehicle id="S_N_105" type="standard_car" route="S_N" depart="559.0" departLane="random" departSpeed="10" />
    <vehicle id="E_W_106" type="standard_car" route="E_W" depart="561.0" departLane="random" departSpeed="10" />
    <vehicle id="E_W_107" type="standard_car" route="E_W" depart="561.0" departLane="random" departSpeed="10" />
    <vehicle id="N_S_108" type="standard_car" route="N_S" depart="562.0" departLane="random" departSpeed="10" />
    <vehicle id="N_S_109" type="standard_car" route="N_S" depart="562.0" departLane="random" departSpeed="10" />
    <vehicle id="W_E_110" type="standard_car" route="W_E" depart="565.0" departLane="random" departSpeed="10" />
    <vehicle id="E_W_111" type="standard_car" route="E_W" depart="567.0" departLane="random" departSpeed="10" />
    <vehicle id="N_S_112" type="standard_car" route="N_S" depart="568.0" departLane="random" departSpeed="10" />
    <vehicle id="S_N_113" type="standard_car" route="S_N" depart="570.0" departLane="random" departSpeed="10" />
    <vehicle id="N_S_114" type="standard_car" route="N_S" depart="571.0" departLane="random" departSpeed="10" />
    <vehicle id="W_N_115" type="standard_car" route="W_N" depart="577.0" departLane="random" departSpeed="10" />
    <vehicle id="S_N_116" type="standard_car" route="S_N" depart="584.0" departLane="random" departSpeed="10" />
    <vehicle id="E_W_117" type="standard_car" route="E_W" depart="584.0" departLane="random" departSpeed="10" />
    <vehicle id="E_W_118" type="standard_car" route="E_W" depart="590.0" departLane="random" departSpeed="10" />
    <vehicle id="S_N_119" type="standard_car" route="S_N" depart="592.0" departLane="random" departSpeed="10" />
    <vehicle id="S_N_120" type="standard_car" route="S_N" depart="593.0" departLane="random" departSpeed="10" />
    <vehicle id="E_W_121" type="standard_car" route="E_W" depart="593.0" departLane="random" departSpeed="10" />
    <vehicle id="S_W_122" type="standard_car" route="S_W" depart="594.0" departLane="random" departSpeed="10" />
    <vehicle id="E_S_123" type="standard_car" route="E_S" depart="594.0" departLane="random" departSpeed="10" />
    <vehicle id="E_W_124" type="standard_car" route="E_W" depart="596.0" departLane="random" departSpeed="10" />
    <vehicle id="E_N_125" type="standard_car" route="E_N" depart="596.0" departLane="random" departSpeed="10" />
    <vehicle id="N_S_126" type="standard_car" route="N_S" depart="599.0" departLane="random" departSpeed="10" />
    <vehicle id="S_N_127" type="standard_car" route="S_N" depart="599.0" departLane="random" departSpeed="10" />
    <vehicle id="N_E_128" type="standard_car" route="N_E" depart="606.0" departLane="random" departSpeed="10" />
    <vehicle id="E_W_129" type="standard_car" route="E_W" depart="608.0" departLane="random" departSpeed="10" />
    <vehicle id="W_E_130" type="standard_car" route="W_E" depart="609.0" departLane="random" departSpeed="10" />
    <vehicle id="N_S_131" type="standard_car" route="N_S" depart="612.0" departLane="random" departSpeed="10" />
    <vehicle id="W_E_132" type="standard_car" route="W_E" depart="614.0" departLane="random" departSpeed="10" />
    <vehicle id="E_N_133" type="standard_car" route="E_N" depart="614.0" departLane="random" departSpeed="10" />
    <vehicle id="W_E_134" type="standard_car" route="W_E" depart="618.0" departLane="random" departSpeed="10" />
    <vehicle id="N_E_135" type="standard_car" route="N_E" depart="623.0" departLane="random" departSpeed="10" />
    <vehicle id="W_E_136" type="standard_car" route="W_E" depart="625.0" departLane="random" departSpeed="10" />
    <vehicle id="E_W_137" type="standard_car" route="E_W" depart="630.0" departLane="random" departSpeed="10" />
    <vehicle id="S_N_138" type="standard_car" route="S_N" depart="632.0" departLane="random" departSpeed="10" />
    <vehicle id="W_E_139" type="standard_car" route="W_E" depart="634.0" departLane="random" departSpeed="10" />
    <vehicle id="W_E_140" type="standard_car" route="W_E" depart="635.0" departLane="random" departSpeed="10" />
    <vehicle id="W_E_141" type="standard_car" route="W_E" depart="636.0" departLane="random" departSpeed="10" />
    <vehicle id="W_N_142" type="standard_car" route="W_N" depart="640.0" departLane="random" departSpeed="10" />
    <vehicle id="N_W_143" type="standard_car" route="N_W" depart="643.0" departLane="random" departSpeed="10" />
    <vehicle id="N_S_144" type="standard_car" route="N_S" depart="645.0" departLane="random" departSpeed="10" />
    <vehicle id="S_N_145" type="standard_car" route="S_N" depart="645.0" departLane="random" departSpeed="10" />
    <vehicle id="S_N_146" type="standard_car" route="S_N" depart="646.0" departLane="random" departSpeed="10" />
    <vehicle id="E_W_147" type="standard_car" route="E_W" depart="653.0" departLane="random" departSpeed="10" />
    <vehicle id="S_N_148" type="standard_car" route="S_N" depart="654.0" departLane="random" departSpeed="10" />
    <vehicle id="W_S_149" type="standard_car" route="W_S" depart="654.0" departLane="random" departSpeed="10" />
    <vehicle id="W_N_150" type="standard_car" route="W_N" depart="663.0" departLane="random" departSpeed="10" />
    <vehicle id="E_N_151" type="standard_car" route="E_N" depart="663.0" departLane="random" departSpeed="10" />
    <vehicle id="E_W_152" type="standard_car" route="E_W" depart="664.0" departLane="random" departSpeed="10" />
    <vehicle id="W_S_153" type="standard_car" route="W_S" depart="664.0" departLane="random" departSpeed="10" />
    <vehicle id="S_W_154" type="standard_car" route="S_W" depart="669.0" departLane="random" departSpeed="10" />
    <vehicle id="S_N_155" type="standard_car" route="S_N" depart="670.0" departLane="random" departSpeed="10" />
    <vehicle id="N_W_156" type="standard_car" route="N_W" depart="673.0" departLane="random" departSpeed="10" />
    <vehicle id="S_W_157" type="standard_car" route="S_W" depart="683.0" departLane="random" departSpeed="10" />
    <vehicle id="S_N_158" type="standard_car" route="S_N" depart="685.0" departLane="random" departSpeed="10" />
    <vehicle id="W_E_159" type="standard_car" route="W_E" depart="685.0" departLane="random" departSpeed="10" />
    <vehicle id="W_E_160" type="standard_car" route="W_E" depart="686.0" departLane="random" departSpeed="10" />
    <vehicle id="N_W_161" type="standard_car" route="N_W" depart="686.0" departLane="random" departSpeed="10" />
    <vehicle id="N_S_162" type="standard_car" route="N_S" depart="690.0" departLane="random" departSpeed="10" />
    <vehicle id="W_E_163" type="standard_car" route="W_E" depart="693.0" departLane="random" departSpeed="10" />
    <vehicle id="E_S_164" type="standard_car" route="E_S" depart="694.0" departLane="random" departSpeed="10" />
    <vehicle id="S_N_165" type="standard_car" route="S_N" depart="697.0" departLane="random" departSpeed="10" />
    <vehicle id="E_W_166" type="standard_car" route="E_W" depart="698.0" departLane="random" departSpeed="10" />
    <vehicle id="W_N_167" type="standard_car" route="W_N" depart="699.0" departLane="random" departSpeed="10" />
    <vehicle id="N_S_168" type="standard_car" route="N_S" depart="700.0" departLane="random" departSpeed="10" />
    <vehicle id="N_W_169" type="standard_car" route="N_W" depart="703.0" departLane="random" departSpeed="10" />
    <vehicle id="W_N_170" type="standard_car" route="W_N" depart="704.0" departLane="random" departSpeed="10" />
    <vehicle id="W_E_171" type="standard_car" route="W_E" depart="715.0" departLane="random" departSpeed="10" />
    <vehicle id="W_N_172" type="standard_car" route="W_N" depart="718.0" departLane="random" departSpeed="10" />
    <vehicle id="E_W_173" type="standard_car" route="E_W" depart="722.0" departLane="random" departSpeed="10" />
    <vehicle id="N_S_174" type="standard_car" route="N_S" depart="723.0" departLane="random" departSpeed="10" />
    <vehicle id="W_N_175" type="standard_car" route="W_N" depart="723.0" departLane="random" departSpeed="10" />
    <vehicle id="E_W_176" type="standard_car" route="E_W" depart="723.0" departLane="random" departSpeed="10" />
    <vehicle id="E_S_177" type="standard_car" route="E_S" depart="726.0" departLane="random" departSpeed="10" />
    <vehicle id="E_W_178" type="standard_car" route="E_W" depart="728.0" departLane="random" departSpeed="10" />
    <vehicle id="W_E_179" type="standard_car" route="W_E" depart="731.0" departLane="random" departSpeed="10" />
    <vehicle id="E_W_180" type="standard_car" route="E_W" depart="733.0" departLane="random" departSpeed="10" />
    <vehicle id="E_W_181" type="standard_car" route="E_W" depart="734.0" departLane="random" departSpeed="10" />
    <vehicle id="W_N_182" type="standard_car" route="W_N" depart="735.0" departLane="random" departSpeed="10" />
    <vehicle id="S_N_183" type="standard_car" route="S_N" depart="741.0" departLane="random" departSpeed="10" />
    <vehicle id="N_S_184" type="standard_car" route="N_S" depart="744.0" departLane="random" departSpeed="10" />
    <vehicle id="W_E_185" type="standard_car" route="W_E" depart="747.0" departLane="random" departSpeed="10" />
    <vehicle id="N_W_186" type="standard_car" route="N_W" depart="751.0" departLane="random" departSpeed="10" />
    <vehicle id="N_E_187" type="standard_car" route="N_E" depart="751.0" departLane="random" departSpeed="10" />
    <vehicle id="N_S_188" type="standard_car" route="N_S" depart="754.0" departLane="random" departSpeed="10" />
    <vehicle id="W_E_189" type="standard_car" route="W_E" depart="755.0" departLane="random" departSpeed="10" />
    <vehicle id="W_N_190" type="standard_car" route="W_N" depart="755.0" departLane="random" departSpeed="10" />
    <vehicle id="E_S_191" type="standard_car" route="E_S" depart="761.0" departLane="random" departSpeed="10" />
    <vehicle id="W_E_192" type="standard_car" route="W_E" depart="761.0" departLane="random" departSpeed="10" />
    <vehicle id="S_N_193" type="standard_car" route="S_N" depart="762.0" departLane="random" departSpeed="10" />
    <vehicle id="E_W_194" type="standard_car" route="E_W" depart="763.0" departLane="random" departSpeed="10" />
    <vehicle id="W_E_195" type="standard_car" route="W_E" depart="767.0" departLane="random" departSpeed="10" />
    <vehicle id="S_N_196" type="standard_car" route="S_N" depart="772.0" departLane="random" departSpeed="10" />
    <vehicle id="W_E_197" type="standard_car" route="W_E" depart="782.0" departLane="random" departSpeed="10" />
    <vehicle id="W_E_198" type="standard_car" route="W_E" depart="782.0" departLane="random" departSpeed="10" />
    <vehicle id="N_E_199" type="standard_car" route="N_E" depart="787.0" departLane="random" departSpeed="10" />
    <vehicle id="N_S_200" type="standard_car" route="N_S" depart="788.0" departLane="random" departSpeed="10" />
    <vehicle id="W_E_201" type="standard_car" route="W_E" depart="789.0" departLane="random" departSpeed="10" />
    <vehicle id="E_S_202" type="standard_car" route="E_S" depart="789.0" departLane="random" departSpeed="10" />
    <vehicle id="W_S_203" type="standard_car" route="W_S" depart="798.0" departLane="random" departSpeed="10" />
    <vehicle id="W_E_204" type="standard_car" route="W_E" depart="800.0" departLane="random" departSpeed="10" />
    <vehicle id="N_W_205" type="standard_car" route="N_W" depart="802.0" departLane="random" departSpeed="10" />
    <vehicle id="N_S_206" type="standard_car" route="N_S" depart="803.0" departLane="random" departSpeed="10" />
    <vehicle id="W_E_207" type="standard_car" route="W_E" depart="803.0" departLane="random" departSpeed="10" />
    <vehicle id="N_S_208" type="standard_car" route="N_S" depart="810.0" departLane="random" departSpeed="10" />
    <vehicle id="W_E_209" type="standard_car" route="W_E" depart="814.0" departLane="random" departSpeed="10" />
    <vehicle id="W_E_210" type="standard_car" route="W_E" depart="815.0" departLane="random" departSpeed="10" />
    <vehicle id="W_E_211" type="standard_car" route="W_E" depart="815.0" departLane="random" departSpeed="10" />
    <vehicle id="S_N_212" type="standard_car" route="S_N" depart="818.0" departLane="random" departSpeed="10" />
    <vehicle id="S_N_213" type="standard_car" route="S_N" depart="821.0" departLane="random" departSpeed="10" />
    <vehicle id="S_N_214" type="standard_car" route="S_N" depart="822.0" departLane="random" departSpeed="10" />
    <vehicle id="N_S_215" type="standard_car" route="N_S" depart="827.0" departLane="random" departSpeed="10" />
    <vehicle id="E_N_216" type="standard_car" route="E_N" depart="830.0" departLane="random" departSpeed="10" />
    <vehicle id="N_S_217" type="standard_car" route="N_S" depart="830.0" departLane="random" departSpeed="10" />
    <vehicle id="S_N_218" type="standard_car" route="S_N" depart="833.0" departLane="random" departSpeed="10" />
    <vehicle id="S_E_219" type="standard_car" route="S_E" depart="833.0" departLane="random" departSpeed="10" />
    <vehicle id="N_E_220" type="standard_car" route="N_E" depart="836.0" departLane="random" departSpeed="10" />
    <vehicle id="W_E_221" type="standard_car" route="W_E" depart="836.0" departLane="random" departSpeed="10" />
    <vehicle id="W_N_222" type="standard_car" route="W_N" depart="836.0" departLane="random" departSpeed="10" />
    <vehicle id="S_N_223" type="standard_car" route="S_N" depart="838.0" departLane="random" departSpeed="10" />
    <vehicle id="E_N_224" type="standard_car" route="E_N" depart="840.0" departLane="random" departSpeed="10" />
    <vehicle id="N_S_225" type="standard_car" route="N_S" depart="843.0" departLane="random" departSpeed="10" />
    <vehicle id="N_S_226" type="standard_car" route="N_S" depart="844.0" departLane="random" departSpeed="10" />
    <vehicle id="S_N_227" type="standard_car" route="S_N" depart="845.0" departLane="random" departSpeed="10" />
    <vehicle id="S_N_228" type="standard_car" route="S_N" depart="846.0" departLane="random" departSpeed="10" />
    <vehicle id="S_W_229" type="standard_car" route="S_W" depart="846.0" departLane="random" departSpeed="10" />
    <vehicle id="N_S_230" type="standard_car" route="N_S" depart="857.0" departLane="random" departSpeed="10" />
    <vehicle id="W_S_231" type="standard_car" route="W_S" depart="858.0" departLane="random" departSpeed="10" />
    <vehicle id="W_E_232" type="standard_car" route="W_E" depart="865.0" departLane="random" departSpeed="10" />
    <vehicle id="N_E_233" type="standard_car" route="N_E" depart="867.0" departLane="random" departSpeed="10" />
    <vehicle id="N_S_234" type="standard_car" route="N_S" depart="868.0" departLane="random" departSpeed="10" />
    <vehicle id="N_S_235" type="standard_car" route="N_S" depart="871.0" departLane="random" departSpeed="10" />
    <vehicle id="E_W_236" type="standard_car" route="E_W" depart="875.0" departLane="random" departSpeed="10" />
    <vehicle id="W_E_237" type="standard_car" route="W_E" depart="878.0" departLane="random" departSpeed="10" />
    <vehicle id="W_E_238" type="standard_car" route="W_E" depart="879.0" departLane="random" departSpeed="10" />
    <vehicle id="E_W_239" type="standard_car" route="E_W" depart="881.0" departLane="random" departSpeed="10" />
    <vehicle id="N_S_240" type="standard_car" route="N_S" depart="885.0" departLane="random" departSpeed="10" />
    <vehicle id="E_W_241" type="standard_car" route="E_W" depart="887.0" departLane="random" departSpeed="10" />
    <vehicle id="S_N_242" type="standard_car" route="S_N" depart="890.0" departLane="random" departSpeed="10" />
    <vehicle id="N_S_243" type="standard_car" route="N_S" depart="890.0" departLane="random" departSpeed="10" />
    <vehicle id="W_E_244" type="standard_car" route="W_E" depart="894.0" departLane="random" departSpeed="10" />
    <vehicle id="E_S_245" type="standard_car" route="E_S" depart="897.0" departLane="random" departSpeed="10" />
    <vehicle id="E_W_246" type="standard_car" route="E_W" depart="898.0" departLane="random" departSpeed="10" />
    <vehicle id="E_W_247" type="standard_car" route="E_W" depart="902.0" departLane="random" departSpeed="10" />
    <vehicle id="E_W_248" type="standard_car" route="E_W" depart="905.0" departLane="random" departSpeed="10" />
    <vehicle id="S_N_249" type="standard_car" route="S_N" depart="906.0" departLane="random" departSpeed="10" />
    <vehicle id="S_N_250" type="standard_car" route="S_N" depart="907.0" departLane="random" departSpeed="10" />
    <vehicle id="W_E_251" type="standard_car" route="W_E" depart="911.0" departLane="random" departSpeed="10" />
    <vehicle id="S_N_252" type="standard_car" route="S_N" depart="915.0" departLane="random" departSpeed="10" />
    <vehicle id="N_W_253" type="standard_car" route="N_W" depart="915.0" departLane="random" departSpeed="10" />
    <vehicle id="N_S_254" type="standard_car" route="N_S" depart="918.0" departLane="random" departSpeed="10" />
    <vehicle id="S_N_255" type="standard_car" route="S_N" depart="918.0" departLane="random" departSpeed="10" />
    <vehicle id="W_S_256" type="standard_car" route="W_S" depart="919.0" departLane="random" departSpeed="10" />
    <vehicle id="W_E_257" type="standard_car" route="W_E" depart="925.0" departLane="random" departSpeed="10" />
    <vehicle id="N_S_258" type="standard_car" route="N_S" depart="927.0" departLane="random" departSpeed="10" />
    <vehicle id="S_N_259" type="standard_car" route="S_N" depart="928.0" departLane="random" departSpeed="10" />